<?xml version="1.0" encoding="UTF-8"?>

<!-- generated on Wed Aug 25 07:05:35 2021 by Eclipse SUMO duarouter Version 1.8.0
<configuration xmlns:xsi="http://www.w3.org/2001/XMLSchema-instance" xsi:noNamespaceSchemaLocation="http://sumo.dlr.de/xsd/duarouterConfiguration.xsd">

    <input>
        <net-file value="BursaScenario.net.xml"/>
        <route-files value="BursaScenarioTest.trips.xml"/>
    </input>

    <output>
        <output-file value="BursaScenarioTest.rou.xml"/>
        <alternatives-output value="BursaScenarioTest.rou.alt.xml"/>
    </output>

</configuration>
-->

<routes xmlns:xsi="http://www.w3.org/2001/XMLSchema-instance" xsi:noNamespaceSchemaLocation="http://sumo.dlr.de/xsd/routes_file.xsd">
    <vehicle id="0" depart="0.00">
        <route edges="305889781#4 -305889771#6 -305889771#4 -305889771#3 -305882797#2 -305882797#1 -182649299#23 -182649299#22 -182649299#20 -182649299#19 -182649299#18 -182649299#17 -182649299#16 -182649299#15 -182649299#14 -182649299#13 -182649299#11 -182649299#10 -182649299#9 -182649299#7 -182649299#5 -182649299#3 182649296 543279486#3 543279486#4 543279486#5 543279486#6 233179505 26430081 461139688#0 461139688#1 461139688#2 461139688#3 461139688#4 23035436#0-AddedOnRampEdge 23035436#0 23035436#2 23035436#3 23035436#4 23035436#5 23035436#6 23035436#7 23035436#8 23035436#9 23035436#10 23035436#11 23035436#12 23035436#13 23035436#14 23035436#15 23035436#16 338348204#0 338348204#1 338348204#4 338348204#5 338348204#6 338348204#7 338348204#7-AddedOffRampEdge 338348204#9 338348204#10-AddedOnRampEdge 338348204#10 338348204#13 481016946#0 481016946#1 481016944#0 481016944#1 481016944#2 481016944#3 481016944#4 481016944#5 481016944#6 23035435 338341593#4 26425874#0 26425874#1 26425874#2 26425874#3 26425874#4 26425874#5 342740705#0 342740705#1 342740705#2 342740705#3 342740705#4 342740705#6 342740705#7 342740705#8 342740705#8-AddedOffRampEdge 342740705#9 342740705#10 342740705#12 342740705#13 724597252#5 724597257#0 26430484#0 26430484#1 26430484#2 26430484#4 26430484#5 343219879#0 343219879#1 343219879#2 343219879#3 343219879#4 343219879#5 343219879#6 343219879#7 343219879#8 343219879#9 343219879#10 343219879#11 23035728 26432006#0 26432006#2-AddedOnRampEdge 26432006#2 26432006#3 26432006#4-AddedOnRampEdge 26432006#4 26432006#6 26432006#7 26432170#1 26432170#2 26432170#3 26432170#4 26432170#5 26432170#5-AddedOffRampEdge 26432170#6 26432170#7 253599886#1 -253599888#3 -26492188 26446160#0 26446160#1 26446160#2 26446159#0 26446159#1 26446159#2 26446159#3 26446159#5 26446159#7 26446159#9 26446159#10 26446159#12 26446159#13 26446159#14 26446159#15 26446159#16 26446159#17 26446159#18 26446159#19 26446159#20 26446159#21 26446159#22 26446159#23 26446159#25 26446159#26 26446159#27 26446159#28 26446159#30 26446159#31 26446159#32 26446159#33 345675046#0 345675046#2 345675046#3 345675046#4 345675046#4-AddedOffRampEdge 345675046#5 150871646-AddedOnRampEdge 150871646 331239734#6 331239734#7 331239734#8 281068302 600557452#2 600557452#3 233456720#0 -334176613#29 -334176613#27 -334176613#26 -334176613#24 -334176613#23 -334176613#22 -334176613#21 -334176613#20 -334176613#18 -334176613#17 -334176613#15 -334176613#14 -334176613#13 -334176613#12 -334176613#11 -334176613#10 24758264#0 24758264#1 24758264#2 -24758264#2"/>
    </vehicle>
    <vehicle id="1" depart="10.00">
        <route edges="-337422814 337195927#1 430332255#2 337195899#0 337195899#1 -337195934 274911076#2 274911076#3 -337422794#4 26454097 -341199012#3 -341199012#2 -341199012#1 -341199012#0 26454094#2 26432007#1 26432007#2 26432007#3 26432007#4 26432007#5 26434046#0 26434046#1 342746332 343184088#0 343184088#2 724597252#1 26425866#0 26425866#2 26425866#3 26425866#4 26425866#5 26425866#6 26425866#7 26425866#8 26425866#9 699097411#0 699097411#1 699097411#3 342740706#0 342740706#1 342740706#2 342740706#3 342740706#6 342740706#7 342740706#8 338341593#1 23035437#0 23035437#1 23035437#2 23035443#0 23035443#1 23035443#2 23035443#3 23035443#4 23035443#6 23035443#7 23035443#8 23035443#9 23035443#10 481016940 23035440#0 23035440#1 481016947#0 481016947#1 481016947#2 481016947#3 481016947#4 481016947#5 481016947#6 481016947#7 481016947#8 481016947#9 338348205#0 338348205#1 338348205#2 338348205#3 338348205#4 331634762#0 331634762#1 331634762#2 331634762#3 331634762#4 331634762#5 331634762#6 331634762#7 26429996#0 26429996#1 26429996#2 26429996#3 26429996#4 26429996#5 26429983 26430079#3 26430079#4 26430079#5 26430079#6 26430079#8 26430079#9 26430079#10 26430079#11 187964627#0 187964627#3 187964627#4 187964627#5 187964627#6 187964627#7 187964627#8 233180603#0 233180603#1 233180603#2 233180603#3 233180606#0 233180606#1 233180606#2 233180606#3 233180606#4 233180606#5-AddedOnRampEdge 233180606#5 306525610#0 306525610#1 306525610#2 306525610#3 306525610#4 667143880#0 667143880#1 667143880#2 667143880#3 667143880#4 667143880#5 667143880#6 667143880#7 667143880#8 667143880#9 667143880#10 667143880#11 667143880#12 667143880#13 667143880#14 667143880#15 252560637#0 252560637#1 252560637#2 252560637#3 252560637#4 252560637#5 252560637#6 252560637#7 252560637#8 252560637#9 252560637#10 252560637#11 252560637#12 252560637#13 252560637#14 252560637#15 252560637#16 252560637#17 252560637#18 252560637#19 252560637#20 252560637#21 252560637#22 252560637#23 252560637#24 252560637#25 252560637#27 -336143933#3 -336143933#2 -336143933#1 414864392#10 -467420106#1 -252560665#3 749740332#0 -338357443#19 254405712#0 254405712#1 254405712#2 254405712#3 254405712#5 254405712#6 254405712#7 254405712#9 254405712#10 254405712#11 -334366640#5 -334366640#4 -334366640#3 -334366640#2 -334366640#1 -334366670"/>
    </vehicle>
    <vehicle id="2" depart="20.00">
        <route edges="335885841 352230286#15 352230286#16 352230286#17 352230286#18 352230286#19 352230286#20 524213375 589387696#1 589387696#2 589387696#3 589387696#4 589387696#5 589387696#6 589387696#7 589387696#8 589387696#9 589387696#10 589387696#11 589387696#12 589387696#13 589387696#14 589387696#15 589387696#16 589387696#17 589387696#18 589387696#19 589387696#20 589387696#21 589387696#22 589387696#23 589387696#24 589387696#25 589387696#26 589387696#27 352230287 724025370#1 335884220#0 335884220#1 335884220#2 352232082#0 352232082#1 352232082#2 352232082#3 352232082#4 352232082#5 352232082#6 445997780#7-AddedOnRampEdge 445997780#7 150871647 23030660#5 23030660#6 23030660#7-AddedOnRampEdge 23030660#7 23030660#8 23030660#11 23030660#12-AddedOnRampEdge 23030660#12 23030660#13 150871715 24810168#2 519928435 519928434 240969493#0 240969494#0 240969494#3 240969494#3-AddedOffRampEdge 240969494#4 240969494#4-AddedOffRampEdge 700337479#2 331210738-AddedOnRampEdge 331210738 522423694#6 522423694#7 522423694#8 522423694#1 522423694#2 448190754 522824911#6 522824911#1 522824911#2 476264282#0 522824927 749704613 749704615#0 749704615#2 -305986352#30 -305986352#29 -305986352#28 -305986352#27 305986352#27"/>
    </vehicle>
    <vehicle id="3" depart="30.00">
        <route edges="521538307#4 521538307#1 521538307#2 521538296#1 521538300#1-AddedOnRampEdge 521538300#1 521538283#1 24738803#0 24738803#1 24738803#2 24738803#3 24738803#4 24738803#6 24738803#7 24738803#8 24738803#9 24738803#10 24738803#12 24738803#13 345238687 26446206#6 26446206#7 26446206#8 26446206#9 529465406#0 334769264 334769334#5 334769335 481560835#1 -532217472#8 26492303#0 26492303#1 26492303#2 26492303#3 26492303#4 26492303#6 26492303#7 26492303#8 26492303#10 26492303#11 26492303#13 26492303#14 26492303#15 26492303#16 26492303#17 26492303#18 26492303#19 319024796 -26492318#9 -26492318#8 -26492318#7 -26492318#6 -26492318#5 -26492318#4 -26492318#3 -26492318#1 -26492318#0 -26491844 26446026#0 26446026#1 26446026#2 26446029#2 26426012#0 26426012#1 26426012#2 26426012#3 26426012#4 426297812#0 426297812#1 26431996 289862317#0 289862317#2 289862317#3 289862317#3-AddedOffRampEdge 289862317#4 26432007#0 26432007#1 26432007#2 26432007#3 26432007#4 26432007#5 26434046#0 26434046#1 342746332 343184088#0 343184088#2 724597252#1 26425866#0 26425866#2 26425866#3 26425866#4 26425866#5 26425866#6 26425866#7 26425866#8 26425866#9 699097411#0 699097411#1 699097411#3 342740706#0 342740706#1 342740706#2 342740706#3 342740706#6 342740706#7 342740706#8 338341593#1 23035437#0 23035437#1 23035437#2 23035443#0 23679232#0 23679232#1 23679232#2 23679232#3 23679232#4 23679232#6 23679232#7 23679232#8 23679232#9 26434516#0 26434516#1 26434516#2 26434516#4 26434516#5 26434516#6 26434516#7 26434516#10 26434516#11 26434516#12 26434516#13 26434516#14 663083510#0 663083510#1-AddedOnRampEdge 663083510#1 190291566#13 341455364#0 341455367 320570262 543046071 320570263 -64923925#6 -64923925#5 -64923925#4 -64923925#2 -64923925#1 -64923925#0 64923926#0 64923926#2 64923926#3 64923926#4 64923926#5 64923926#6 64923926#7 64923926#8 64923926#9 64923926#10 64923926#12 64923926#13 64923926#14 544285597#35 544285597#36 544285597#38 544285597#40 544285597#42 544285597#44 544285597#46 544285597#47 544285597#48 543471911#0 543471911#1 543471911#3 543471911#4 543471912#0 543471912#2 543471912#4 543471912#5 543471912#6 543471912#7 543471912#9 543471912#10 543471912#11 543471912#12 543471912#13 543471912#14 543471912#15 543471912#16 543471912#17 543471912#18 449532768#0 461139684#0 461139684#1 461139685#0 461139685#1 461139685#2 461139685#3 461139685#4 461139685#5 461139685#6 461139685#8 461139685#9 461139685#10 461139685#11 461139685#12 461139685#13 -305869126#35 -305869126#34 -305869126#33 -305869126#32 -305869126#31 -305869126#30 -305869126#29 -305869126#28 -305869126#27 -305869126#26 -305869126#25 -305869126#24 -305869126#22 -305869126#20 -305869126#19 -305869126#18 -305869126#16 -305869126#15 -305869126#14 -305869126#13 -305869126#12 -305869126#11 -305869126#10 -305869126#9 -305869126#8 -305869126#6 -305869126#5 -305869126#3 -305869126#2 -305869126#1 585685046 460907329 305746815#1 305746815#3 305746815#4 305746815#6 305746815#7 305746815#8 -305746815#8"/>
    </vehicle>
    <vehicle id="4" depart="40.00">
        <route edges="-680018111 367282753#1 -680018108#1 -680018108#0 680018107 231797012#1 231797012#2 231797012#3 231797012#4 231797012#5 231797012#6 231797012#7 231797012#8 600332878#1-AddedOnRampEdge 600332878#1 600332878#2 600332878#3-AddedOnRampEdge 600332878#3 436877122#0 436877122#1 436877122#1-AddedOffRampEdge 231797010#0 231797010#1-AddedOnRampEdge 231797010#1 35873813#0 210411201 479480573#1 345896303#0 345896303#1 -82449180#3 -700323828#2 82449183#0 82449183#1 82449183#2 82449183#3 232695581#0 681360925#3 681360926 700331074#0 -588992365 -306022596#17 24810197#0 24810197#1 24810197#2 24810197#3 24810197#4 24810197#5 24810197#6 522423697#1 522423694#8 522423694#1 522423694#2 522423694#3 522423694#4 487998936#0 487998936#1 24809365 700337476 700337475#1 700337475#2 700337475#3 700337475#4 700337475#5 700337475#6 700337475#7 700337475#8 700337475#9 700337475#10 700337475#11 700337475#12 150871612#0 150871612#1 150871612#2 150871612#3 700337482#0 700337482#1-AddedOnRampEdge 700337482#1 700337482#2 700337482#3 700337482#4 700337482#5 700337482#6 700337482#7 700337482#8 700337482#9 23030981#1 23030981#2 23030972 306522828#0 306522828#1 306522828#2 306522827#0 306522827#1-AddedOnRampEdge 306522827#1 306522827#2 306522827#2-AddedOffRampEdge 306522827#5 306522827#6-AddedOnRampEdge 306522827#6 233032940#0 233032940#2 233032940#3 233032940#4 233032940#5 471764743#1 471764743#2 24738665#0 24738665#2 24738665#3 24738665#5 306841256 341144964#0 341144964#1 341144964#3 341144964#4 -336003692 -248646095#8 -248646093#3"/>
    </vehicle>
</routes>
