<?xml version="1.0" encoding="UTF-8"?>

<configuration xmlns:xsi="http://www.w3.org/2001/XMLSchema-instance" xsi:noNamesapceSchemaLocation="http://sumo.dlr.de/xsd/sumoConfiguration.xsd">

	<input>
		<net-file value="BursaScenario.net.xml"/>
		<route-files value="BursaScenario.rou.xml"/>
		<additional-files value="BursaScenario.poly.xml"/>
	</input>
	
	<time>
		<begin value="0"/>
		<end value="86400"/>
		<step-length value="0.1"/>
	</time>
	
	<gui_only>
		<gui-settings-file value="gui-settings.cfg.xml"/>
		<start value="true"/>
	</gui_only>
	
</configuration>